data/case57_xiidm/grid.xiidm
<?xml version="1.0" encoding="UTF-8"?>
<iidm:network xmlns:iidm="http://www.powsybl.org/schema/iidm/1_16" xmlns:cp="http://www.powsybl.org/schema/iidm/ext/connectable_position/1_1" xmlns:bbsp="http://www.itesla_project.eu/schema/iidm/ext/busbarsectionposition/1_0" xmlns:reft="http://www.powsybl.org/schema/iidm/ext/reference_terminals/1_0" xmlns:slt="http://www.powsybl.org/schema/iidm/ext/slack_terminal/1_5" id="Default" caseDate="2026-06-16T10:13:21.657Z" forecastDistance="0" sourceFormat="" minimumValidationLevel="STEADY_STATE_HYPOTHESIS">
    <iidm:substation id="S1" name="" country="BE" tso="">
        <iidm:voltageLevel id="VL1" name="" nominalV="1.0" topologyKind="NODE_BREAKER">
            <iidm:nodeBreakerTopology>
                <iidm:busbarSection id="VL1_0_BBS1" name="VL1_0_BBS1" node="0"/>
                <iidm:busbarSection id="VL1_0_BBS2" name="VL1_0_BBS2" node="1"/>
                <iidm:switch id="VL1_0_BBS1_VL1_0_BBS2_COUPLER_BREAKER" kind="BREAKER" retained="true" open="false" node1="2" node2="3"/>
                <iidm:switch id="VL1_0_BBS1_VL1_0_BBS2_COUPLER_DISCONNECTOR_2_0" kind="DISCONNECTOR" retained="false" open="false" node1="2" node2="0"/>
                <iidm:switch id="VL1_0_BBS1_VL1_0_BBS2_COUPLER_DISCONNECTOR_3_1" kind="DISCONNECTOR" retained="false" open="false" node1="3" node2="1"/>
                <iidm:switch id="L1-2-11_BREAKER" kind="BREAKER" retained="true" open="false" node1="4" node2="5"/>
                <iidm:switch id="L1-2-11_DISCONNECTOR_5_0" kind="DISCONNECTOR" retained="false" open="false" node1="5" node2="0"/>
                <iidm:switch id="L1-2-11_DISCONNECTOR_5_1" kind="DISCONNECTOR" retained="false" open="true" node1="5" node2="1"/>
                <iidm:switch id="L1-15-11_BREAKER" kind="BREAKER" retained="true" open="false" node1="6" node2="7"/>
                <iidm:switch id="L1-15-11_DISCONNECTOR_7_0" kind="DISCONNECTOR" retained="false" open="true" node1="7" node2="0"/>
                <iidm:switch id="L1-15-11_DISCONNECTOR_7_1" kind="DISCONNECTOR" retained="false" open="false" node1="7" node2="1"/>
                <iidm:switch id="L1-16-11_BREAKER" kind="BREAKER" retained="true" open="false" node1="8" node2="9"/>
                <iidm:switch id="L1-16-11_DISCONNECTOR_9_0" kind="DISCONNECTOR" retained="false" open="false" node1="9" node2="0"/>
                <iidm:switch id="L1-16-11_DISCONNECTOR_9_1" kind="DISCONNECTOR" retained="false" open="true" node1="9" node2="1"/>
                <iidm:switch id="L1-17-11_BREAKER" kind="BREAKER" retained="true" open="false" node1="10" node2="11"/>
                <iidm:switch id="L1-17-11_DISCONNECTOR_11_0" kind="DISCONNECTOR" retained="false" open="true" node1="11" node2="0"/>
                <iidm:switch id="L1-17-11_DISCONNECTOR_11_1" kind="DISCONNECTOR" retained="false" open="false" node1="11" node2="1"/>
                <iidm:switch id="B1-L_BREAKER" kind="BREAKER" retained="true" open="false" node1="12" node2="13"/>
                <iidm:switch id="B1-L_DISCONNECTOR_13_0" kind="DISCONNECTOR" retained="false" open="false" node1="13" node2="0"/>
                <iidm:switch id="B1-L_DISCONNECTOR_13_1" kind="DISCONNECTOR" retained="false" open="true" node1="13" node2="1"/>
                <iidm:switch id="B1-G_BREAKER" kind="BREAKER" retained="true" open="false" node1="14" node2="15"/>
                <iidm:switch id="B1-G_DISCONNECTOR_15_0" kind="DISCONNECTOR" retained="false" open="true" node1="15" node2="0"/>
                <iidm:switch id="B1-G_DISCONNECTOR_15_1" kind="DISCONNECTOR" retained="false" open="false" node1="15" node2="1"/>
                <iidm:bus v="1.04" angle="0.0" nodes="0,1,2,3,4,5,6,7,8,9,10,11,12,13,14,15"/>
            </iidm:nodeBreakerTopology>
            <iidm:generator id="B1-G" name="" energySource="OTHER" minP="-9999.0" maxP="9999.0" voltageRegulatorOn="true" targetP="128.9" targetV="1.04" targetQ="-16.1" node="14" p="-214.4214022795273" q="-165.61354121884762">
                <iidm:minMaxReactiveLimits minQ="-1.7976931348623157E308" maxQ="1.7976931348623157E308"/>
            </iidm:generator>
            <iidm:load id="B1-L" name="" loadType="UNDEFINED" p0="55.0" q0="17.0" node="12" p="55.0" q="17.0"/>
        </iidm:voltageLevel>
    </iidm:substation>
    <iidm:substation id="S2" name="" country="BE" tso="">
        <iidm:voltageLevel id="VL2" name="" nominalV="1.0" topologyKind="NODE_BREAKER">
            <iidm:nodeBreakerTopology>
                <iidm:busbarSection id="VL2_0_BBS1" name="VL2_0_BBS1" node="0"/>
                <iidm:switch id="L1-2-12_BREAKER" kind="BREAKER" retained="true" open="false" node1="1" node2="2"/>
                <iidm:switch id="L1-2-12_DISCONNECTOR_2_0" kind="DISCONNECTOR" retained="false" open="false" node1="2" node2="0"/>
                <iidm:switch id="L2-3-11_BREAKER" kind="BREAKER" retained="true" open="false" node1="3" node2="4"/>
                <iidm:switch id="L2-3-11_DISCONNECTOR_4_0" kind="DISCONNECTOR" retained="false" open="false" node1="4" node2="0"/>
                <iidm:switch id="B2-L_BREAKER" kind="BREAKER" retained="true" open="false" node1="5" node2="6"/>
                <iidm:switch id="B2-L_DISCONNECTOR_6_0" kind="DISCONNECTOR" retained="false" open="false" node1="6" node2="0"/>
                <iidm:switch id="B2-G_BREAKER" kind="BREAKER" retained="true" open="false" node1="7" node2="8"/>
                <iidm:switch id="B2-G_DISCONNECTOR_8_0" kind="DISCONNECTOR" retained="false" open="false" node1="8" node2="0"/>
                <iidm:bus v="1.01" angle="0.21106789965890402" nodes="0,1,2,3,4,5,6,7,8"/>
            </iidm:nodeBreakerTopology>
            <iidm:generator id="B2-G" name="" energySource="OTHER" minP="-9999.0" maxP="9999.0" voltageRegulatorOn="true" targetP="0.0" targetV="1.01" targetQ="-0.8" node="7" p="-0.0" q="10.510474806696257">
                <iidm:minMaxReactiveLimits minQ="-17.0" maxQ="50.0"/>
            </iidm:generator>
            <iidm:load id="B2-L" name="" loadType="UNDEFINED" p0="3.0" q0="88.0" node="5" p="3.0" q="88.0"/>
        </iidm:voltageLevel>
    </iidm:substation>
    <iidm:substation id="S3" name="" country="BE" tso="">
        <iidm:voltageLevel id="VL3" name="" nominalV="1.0" topologyKind="NODE_BREAKER">
            <iidm:nodeBreakerTopology>
                <iidm:busbarSection id="VL3_0_BBS1" name="VL3_0_BBS1" node="0"/>
                <iidm:switch id="L2-3-12_BREAKER" kind="BREAKER" retained="true" open="false" node1="1" node2="2"/>
                <iidm:switch id="L2-3-12_DISCONNECTOR_2_0" kind="DISCONNECTOR" retained="false" open="false" node1="2" node2="0"/>
                <iidm:switch id="L3-4-11_BREAKER" kind="BREAKER" retained="true" open="false" node1="3" node2="4"/>
                <iidm:switch id="L3-4-11_DISCONNECTOR_4_0" kind="DISCONNECTOR" retained="false" open="false" node1="4" node2="0"/>
                <iidm:switch id="L3-15-11_BREAKER" kind="BREAKER" retained="true" open="false" node1="5" node2="6"/>
                <iidm:switch id="L3-15-11_DISCONNECTOR_6_0" kind="DISCONNECTOR" retained="false" open="false" node1="6" node2="0"/>
                <iidm:switch id="B3-L_BREAKER" kind="BREAKER" retained="true" open="false" node1="7" node2="8"/>
                <iidm:switch id="B3-L_DISCONNECTOR_8_0" kind="DISCONNECTOR" retained="false" open="false" node1="8" node2="0"/>
                <iidm:switch id="B3-G_BREAKER" kind="BREAKER" retained="true" open="false" node1="9" node2="10"/>
                <iidm:switch id="B3-G_DISCONNECTOR_10_0" kind="DISCONNECTOR" retained="false" open="false" node1="10" node2="0"/>
                <iidm:bus v="0.9929516456308549" angle="-0.19478406073756022" nodes="0,1,2,3,4,5,6,7,8,9,10"/>
            </iidm:nodeBreakerTopology>
            <iidm:generator id="B3-G" name="" energySource="OTHER" minP="-9999.0" maxP="9999.0" voltageRegulatorOn="true" targetP="40.0" targetV="0.985" targetQ="-1.0" node="9" p="-125.52140227952728" q="10.0">
                <iidm:minMaxReactiveLimits minQ="-10.0" maxQ="60.0"/>
            </iidm:generator>
            <iidm:load id="B3-L" name="" loadType="UNDEFINED" p0="41.0" q0="21.0" node="7" p="41.0" q="21.0"/>
        </iidm:voltageLevel>
    </iidm:substation>
    <iidm:substation id="S4" name="" country="BE" tso="">
        <iidm:voltageLevel id="VL4" name="" nominalV="1.0" topologyKind="NODE_BREAKER">
            <iidm:nodeBreakerTopology>
                <iidm:busbarSection id="VL4_0_BBS1" name="VL4_0_BBS1" node="0"/>
                <iidm:busbarSection id="VL4_0_BBS2" name="VL4_0_BBS2" node="1"/>
                <iidm:busbarSection id="VL4_1_BBS1" name="VL4_1_BBS1" node="2"/>
                <iidm:switch id="VL4_0_BBS1_VL4_0_BBS2_COUPLER_BREAKER" kind="BREAKER" retained="true" open="false" node1="3" node2="4"/>
                <iidm:switch id="VL4_0_BBS1_VL4_0_BBS2_COUPLER_DISCONNECTOR_3_0" kind="DISCONNECTOR" retained="false" open="false" node1="3" node2="0"/>
                <iidm:switch id="VL4_0_BBS1_VL4_0_BBS2_COUPLER_DISCONNECTOR_4_1" kind="DISCONNECTOR" retained="false" open="false" node1="4" node2="1"/>
                <iidm:switch id="L3-4-12_BREAKER" kind="BREAKER" retained="true" open="false" node1="5" node2="6"/>
                <iidm:switch id="L3-4-12_DISCONNECTOR_6_0" kind="DISCONNECTOR" retained="false" open="false" node1="6" node2="0"/>
                <iidm:switch id="L3-4-12_DISCONNECTOR_6_1" kind="DISCONNECTOR" retained="false" open="true" node1="6" node2="1"/>
                <iidm:switch id="L4-5-11_BREAKER" kind="BREAKER" retained="true" open="false" node1="7" node2="8"/>
                <iidm:switch id="L4-5-11_DISCONNECTOR_8_0" kind="DISCONNECTOR" retained="false" open="false" node1="8" node2="0"/>
                <iidm:switch id="L4-5-11_DISCONNECTOR_8_1" kind="DISCONNECTOR" retained="false" open="true" node1="8" node2="1"/>
                <iidm:switch id="L4-6-11_BREAKER" kind="BREAKER" retained="true" open="false" node1="9" node2="10"/>
                <iidm:switch id="L4-6-11_DISCONNECTOR_10_0" kind="DISCONNECTOR" retained="false" open="true" node1="10" node2="0"/>
                <iidm:switch id="L4-6-11_DISCONNECTOR_10_1" kind="DISCONNECTOR" retained="false" open="false" node1="10" node2="1"/>
                <iidm:switch id="L18-19-11_BREAKER" kind="BREAKER" retained="true" open="false" node1="11" node2="12"/>
                <iidm:switch id="L18-19-11_DISCONNECTOR_12_2" kind="DISCONNECTOR" retained="false" open="false" node1="12" node2="2"/>
                <iidm:switch id="T4-18-11_BREAKER" kind="BREAKER" retained="true" open="false" node1="13" node2="15"/>
                <iidm:switch id="T4-18-11_DISCONNECTOR_15_0" kind="DISCONNECTOR" retained="false" open="true" node1="15" node2="0"/>
                <iidm:switch id="T4-18-11_DISCONNECTOR_15_1" kind="DISCONNECTOR" retained="false" open="false" node1="15" node2="1"/>
                <iidm:switch id="T4-18-12_BREAKER" kind="BREAKER" retained="true" open="false" node1="14" node2="16"/>
                <iidm:switch id="T4-18-12_DISCONNECTOR_16_2" kind="DISCONNECTOR" retained="false" open="false" node1="16" node2="2"/>
                <iidm:switch id="T4-18-21_BREAKER" kind="BREAKER" retained="true" open="false" node1="17" node2="19"/>
                <iidm:switch id="T4-18-21_DISCONNECTOR_19_0" kind="DISCONNECTOR" retained="false" open="false" node1="19" node2="0"/>
                <iidm:switch id="T4-18-21_DISCONNECTOR_19_1" kind="DISCONNECTOR" retained="false" open="true" node1="19" node2="1"/>
                <iidm:switch id="T4-18-22_BREAKER" kind="BREAKER" retained="true" open="false" node1="18" node2="20"/>
                <iidm:switch id="T4-18-22_DISCONNECTOR_20_2" kind="DISCONNECTOR" retained="false" open="false" node1="20" node2="2"/>
                <iidm:switch id="B18-L_BREAKER" kind="BREAKER" retained="true" open="false" node1="21" node2="22"/>
                <iidm:switch id="B18-L_DISCONNECTOR_22_2" kind="DISCONNECTOR" retained="false" open="false" node1="22" node2="2"/>
                <iidm:switch id="B18-SH_BREAKER" kind="BREAKER" retained="true" open="false" node1="23" node2="24"/>
                <iidm:switch id="B18-SH_DISCONNECTOR_24_2" kind="DISCONNECTOR" retained="false" open="false" node1="24" node2="2"/>
                <iidm:bus v="0.9862087104827557" angle="-0.8449185354111608" nodes="0,1,3,4,5,6,7,8,9,10,13,15,17,19"/>
                <iidm:bus v="1.0062612767331707" angle="-5.22993965283532" nodes="2,11,12,14,16,18,20,21,22,23,24"/>
            </iidm:nodeBreakerTopology>
            <iidm:load id="B18-L" name="" loadType="UNDEFINED" p0="27.2" q0="9.8" node="21" p="27.2" q="9.8"/>
            <iidm:shuntCompensator id="B18-SH" name="" sectionCount="1" solvedSectionCount="1" voltageRegulatorOn="false" node="23" p="0.0" q="-10.125617570526707">
                <iidm:shuntLinearModel bPerSection="10.0" maximumSectionCount="1"/>
            </iidm:shuntCompensator>
        </iidm:voltageLevel>
        <iidm:twoWindingsTransformer id="T4-18-1" r="0.0" x="0.00555" g="0.0" b="0.0" ratedU1="0.97" ratedU2="1.0" voltageLevelId1="VL4" node1="13" voltageLevelId2="VL4" node2="14" p1="14.094182308998398" q1="2.4537128025758883" p2="-14.094182308998402" q2="-1.3548437780416989"/>
        <iidm:twoWindingsTransformer id="T4-18-2" r="0.0" x="0.0043" g="0.0" b="0.0" ratedU1="0.978" ratedU2="1.0" voltageLevelId1="VL4" node1="17" voltageLevelId2="VL4" node2="18" p1="18.04252400734601" q1="1.1907580359787628" p2="-18.04252400734601" q2="0.19182303165778758"/>
    </iidm:substation>
    <iidm:substation id="S5" name="" country="BE" tso="">
        <iidm:voltageLevel id="VL5" name="" nominalV="1.0" topologyKind="NODE_BREAKER">
            <iidm:nodeBreakerTopology>
                <iidm:busbarSection id="VL5_0_BBS1" name="VL5_0_BBS1" node="0"/>
                <iidm:switch id="L4-5-12_BREAKER" kind="BREAKER" retained="true" open="false" node1="1" node2="2"/>
                <iidm:switch id="L4-5-12_DISCONNECTOR_2_0" kind="DISCONNECTOR" retained="false" open="false" node1="2" node2="0"/>
                <iidm:switch id="L5-6-11_BREAKER" kind="BREAKER" retained="true" open="false" node1="3" node2="4"/>
                <iidm:switch id="L5-6-11_DISCONNECTOR_4_0" kind="DISCONNECTOR" retained="false" open="false" node1="4" node2="0"/>
                <iidm:switch id="B5-L_BREAKER" kind="BREAKER" retained="true" open="false" node1="5" node2="6"/>
                <iidm:switch id="B5-L_DISCONNECTOR_6_0" kind="DISCONNECTOR" retained="false" open="false" node1="6" node2="0"/>
                <iidm:bus v="0.9784362745205339" angle="-0.9270488765371846" nodes="0,1,2,3,4,5,6"/>
            </iidm:nodeBreakerTopology>
            <iidm:load id="B5-L" name="" loadType="UNDEFINED" p0="13.0" q0="4.0" node="5" p="13.0" q="4.0"/>
        </iidm:voltageLevel>
    </iidm:substation>
    <iidm:substation id="S6" name="" country="BE" tso="">
        <iidm:voltageLevel id="VL6" name="" nominalV="1.0" topologyKind="NODE_BREAKER">
            <iidm:nodeBreakerTopology>
                <iidm:busbarSection id="VL6_0_BBS1" name="VL6_0_BBS1" node="0"/>
                <iidm:busbarSection id="VL6_0_BBS2" name="VL6_0_BBS2" node="1"/>
                <iidm:switch id="VL6_0_BBS1_VL6_0_BBS2_COUPLER_BREAKER" kind="BREAKER" retained="true" open="false" node1="2" node2="3"/>
                <iidm:switch id="VL6_0_BBS1_VL6_0_BBS2_COUPLER_DISCONNECTOR_2_0" kind="DISCONNECTOR" retained="false" open="false" node1="2" node2="0"/>
                <iidm:switch id="VL6_0_BBS1_VL6_0_BBS2_COUPLER_DISCONNECTOR_3_1" kind="DISCONNECTOR" retained="false" open="false" node1="3" node2="1"/>
                <iidm:switch id="L4-6-12_BREAKER" kind="BREAKER" retained="true" open="false" node1="4" node2="5"/>
                <iidm:switch id="L4-6-12_DISCONNECTOR_5_0" kind="DISCONNECTOR" retained="false" open="false" node1="5" node2="0"/>
                <iidm:switch id="L4-6-12_DISCONNECTOR_5_1" kind="DISCONNECTOR" retained="false" open="true" node1="5" node2="1"/>
                <iidm:switch id="L6-7-11_BREAKER" kind="BREAKER" retained="true" open="false" node1="6" node2="7"/>
                <iidm:switch id="L6-7-11_DISCONNECTOR_7_0" kind="DISCONNECTOR" retained="false" open="false" node1="7" node2="0"/>
                <iidm:switch id="L6-7-11_DISCONNECTOR_7_1" kind="DISCONNECTOR" retained="false" open="true" node1="7" node2="1"/>
                <iidm:switch id="L6-8-11_BREAKER" kind="BREAKER" retained="true" open="false" node1="8" node2="9"/>
                <iidm:switch id="L6-8-11_DISCONNECTOR_9_0" kind="DISCONNECTOR" retained="false" open="true" node1="9" node2="0"/>
                <iidm:switch id="L6-8-11_DISCONNECTOR_9_1" kind="DISCONNECTOR" retained="false" open="false" node1="9" node2="1"/>
                <iidm:switch id="L5-6-12_BREAKER" kind="BREAKER" retained="true" open="false" node1="10" node2="11"/>
                <iidm:switch id="L5-6-12_DISCONNECTOR_11_0" kind="DISCONNECTOR" retained="false" open="true" node1="11" node2="0"/>
                <iidm:switch id="L5-6-12_DISCONNECTOR_11_1" kind="DISCONNECTOR" retained="false" open="false" node1="11" node2="1"/>
                <iidm:switch id="B6-L_BREAKER" kind="BREAKER" retained="true" open="false" node1="12" node2="13"/>
                <iidm:switch id="B6-L_DISCONNECTOR_13_0" kind="DISCONNECTOR" retained="false" open="false" node1="13" node2="0"/>
                <iidm:switch id="B6-L_DISCONNECTOR_13_1" kind="DISCONNECTOR" retained="false" open="true" node1="13" node2="1"/>
                <iidm:switch id="B6-G_BREAKER" kind="BREAKER" retained="true" open="false" node1="14" node2="15"/>
                <iidm:switch id="B6-G_DISCONNECTOR_15_0" kind="DISCONNECTOR" retained="false" open="true" node1="15" node2="0"/>
                <iidm:switch id="B6-G_DISCONNECTOR_15_1" kind="DISCONNECTOR" retained="false" open="false" node1="15" node2="1"/>
                <iidm:bus v="0.9801283919816208" angle="-0.5088810559486995" nodes="0,1,2,3,4,5,6,7,8,9,10,11,12,13,14,15"/>
            </iidm:nodeBreakerTopology>
            <iidm:generator id="B6-G" name="" energySource="OTHER" minP="-9999.0" maxP="9999.0" voltageRegulatorOn="true" targetP="0.0" targetV="0.98" targetQ="0.8" node="14" p="-0.0" q="8.0">
                <iidm:minMaxReactiveLimits minQ="-8.0" maxQ="25.0"/>
            </iidm:generator>
            <iidm:load id="B6-L" name="" loadType="UNDEFINED" p0="75.0" q0="2.0" node="12" p="75.0" q="2.0"/>
        </iidm:voltageLevel>
    </iidm:substation>
    <iidm:substation id="S7" name="" country="BE" tso="">
        <iidm:voltageLevel id="VL7" name="" nominalV="1.0" topologyKind="NODE_BREAKER">
            <iidm:nodeBreakerTopology>
                <iidm:busbarSection id="VL7_0_BBS1" name="VL7_0_BBS1" node="0"/>
                <iidm:busbarSection id="VL7_1_BBS1" name="VL7_1_BBS1" node="1"/>
                <iidm:switch id="L6-7-12_BREAKER" kind="BREAKER" retained="true" open="false" node1="2" node2="3"/>
                <iidm:switch id="L6-7-12_DISCONNECTOR_3_0" kind="DISCONNECTOR" retained="false" open="false" node1="3" node2="0"/>
                <iidm:switch id="L7-8-11_BREAKER" kind="BREAKER" retained="true" open="false" node1="4" node2="5"/>
                <iidm:switch id="L7-8-11_DISCONNECTOR_5_0" kind="DISCONNECTOR" retained="false" open="false" node1="5" node2="0"/>
                <iidm:switch id="L28-29-12_BREAKER" kind="BREAKER" retained="true" open="false" node1="6" node2="7"/>
                <iidm:switch id="L28-29-12_DISCONNECTOR_7_1" kind="DISCONNECTOR" retained="false" open="false" node1="7" node2="1"/>
                <iidm:switch id="L29-52-11_BREAKER" kind="BREAKER" retained="true" open="false" node1="8" node2="9"/>
                <iidm:switch id="L29-52-11_DISCONNECTOR_9_1" kind="DISCONNECTOR" retained="false" open="false" node1="9" node2="1"/>
                <iidm:switch id="T7-29-11_BREAKER" kind="BREAKER" retained="true" open="false" node1="10" node2="12"/>
                <iidm:switch id="T7-29-11_DISCONNECTOR_12_0" kind="DISCONNECTOR" retained="false" open="false" node1="12" node2="0"/>
                <iidm:switch id="T7-29-12_BREAKER" kind="BREAKER" retained="true" open="false" node1="11" node2="13"/>
                <iidm:switch id="T7-29-12_DISCONNECTOR_13_1" kind="DISCONNECTOR" retained="false" open="false" node1="13" node2="1"/>
                <iidm:switch id="B29-L_BREAKER" kind="BREAKER" retained="true" open="false" node1="14" node2="15"/>
                <iidm:switch id="B29-L_DISCONNECTOR_15_1" kind="DISCONNECTOR" retained="false" open="false" node1="15" node2="1"/>
                <iidm:bus v="0.9840663765395997" angle="1.3497052441271664" nodes="0,2,3,4,5,10,12"/>
                <iidm:bus v="1.0116031116431372" angle="-1.0235888052009565" nodes="1,6,7,8,9,11,13,14,15"/>
            </iidm:nodeBreakerTopology>
            <iidm:load id="B29-L" name="" loadType="UNDEFINED" p0="17.0" q0="2.6" node="14" p="17.0" q="2.6"/>
        </iidm:voltageLevel>
        <iidm:twoWindingsTransformer id="T7-29-1" r="0.0" x="6.48E-4" g="0.0" b="0.0" ratedU1="0.967" ratedU2="1.0" voltageLevelId1="VL7" node1="10" voltageLevelId2="VL7" node2="11" p1="65.7866526610051" q1="10.857099293735024" p2="-65.7866526610051" q2="-8.075303740873432"/>
    </iidm:substation>
    <iidm:substation id="S8" name="" country="BE" tso="">
        <iidm:voltageLevel id="VL8" name="" nominalV="1.0" topologyKind="NODE_BREAKER">
            <iidm:nodeBreakerTopology>
                <iidm:busbarSection id="VL8_0_BBS1" name="VL8_0_BBS1" node="0"/>
                <iidm:switch id="L6-8-12_BREAKER" kind="BREAKER" retained="true" open="false" node1="1" node2="2"/>
                <iidm:switch id="L6-8-12_DISCONNECTOR_2_0" kind="DISCONNECTOR" retained="false" open="false" node1="2" node2="0"/>
                <iidm:switch id="L8-9-11_BREAKER" kind="BREAKER" retained="true" open="false" node1="3" node2="4"/>
                <iidm:switch id="L8-9-11_DISCONNECTOR_4_0" kind="DISCONNECTOR" retained="false" open="false" node1="4" node2="0"/>
                <iidm:switch id="L7-8-12_BREAKER" kind="BREAKER" retained="true" open="false" node1="5" node2="6"/>
                <iidm:switch id="L7-8-12_DISCONNECTOR_6_0" kind="DISCONNECTOR" retained="false" open="false" node1="6" node2="0"/>
                <iidm:switch id="B8-L_BREAKER" kind="BREAKER" retained="true" open="false" node1="7" node2="8"/>
                <iidm:switch id="B8-L_DISCONNECTOR_8_0" kind="DISCONNECTOR" retained="false" open="false" node1="8" node2="0"/>
                <iidm:switch id="B8-G_BREAKER" kind="BREAKER" retained="true" open="false" node1="9" node2="10"/>
                <iidm:switch id="B8-G_DISCONNECTOR_10_0" kind="DISCONNECTOR" retained="false" open="false" node1="10" node2="0"/>
                <iidm:bus v="1.005" angle="5.26224583023397" nodes="0,1,2,3,4,5,6,7,8,9,10"/>
            </iidm:nodeBreakerTopology>
            <iidm:generator id="B8-G" name="" energySource="OTHER" minP="-9999.0" maxP="9999.0" voltageRegulatorOn="true" targetP="450.0" targetV="1.005" targetQ="62.1" node="9" p="-535.5214022795273" q="-53.413900731313014">
                <iidm:minMaxReactiveLimits minQ="-140.0" maxQ="200.0"/>
            </iidm:generator>
            <iidm:load id="B8-L" name="" loadType="UNDEFINED" p0="150.0" q0="22.0" node="7" p="150.0" q="22.0"/>
        </iidm:voltageLevel>
    </iidm:substation>
    <iidm:substation id="S9" name="" country="BE" tso="">
        <iidm:voltageLevel id="VL9" name="" nominalV="1.0" topologyKind="NODE_BREAKER">
            <iidm:nodeBreakerTopology>
                <iidm:busbarSection id="VL9_0_BBS1" name="VL9_0_BBS1" node="0"/>
                <iidm:busbarSection id="VL9_0_BBS2" name="VL9_0_BBS2" node="1"/>
                <iidm:busbarSection id="VL9_1_BBS1" name="VL9_1_BBS1" node="2"/>
                <iidm:switch id="VL9_0_BBS1_VL9_0_BBS2_COUPLER_BREAKER" kind="BREAKER" retained="true" open="false" node1="3" node2="4"/>
                <iidm:switch id="VL9_0_BBS1_VL9_0_BBS2_COUPLER_DISCONNECTOR_3_0" kind="DISCONNECTOR" retained="false" open="false" node1="3" node2="0"/>
                <iidm:switch id="VL9_0_BBS1_VL9_0_BBS2_COUPLER_DISCONNECTOR_4_1" kind="DISCONNECTOR" retained="false" open="false" node1="4" node2="1"/>
                <iidm:switch id="L8-9-12_BREAKER" kind="BREAKER" retained="true" open="false" node1="5" node2="6"/>
                <iidm:switch id="L8-9-12_DISCONNECTOR_6_0" kind="DISCONNECTOR" retained="false" open="false" node1="6" node2="0"/>
                <iidm:switch id="L8-9-12_DISCONNECTOR_6_1" kind="DISCONNECTOR" retained="false" open="true" node1="6" node2="1"/>
                <iidm:switch id="L9-10-11_BREAKER" kind="BREAKER" retained="true" open="false" node1="7" node2="8"/>
                <iidm:switch id="L9-10-11_DISCONNECTOR_8_0" kind="DISCONNECTOR" retained="false" open="false" node1="8" node2="0"/>
                <iidm:switch id="L9-10-11_DISCONNECTOR_8_1" kind="DISCONNECTOR" retained="false" open="true" node1="8" node2="1"/>
                <iidm:switch id="L9-11-11_BREAKER" kind="BREAKER" retained="true" open="false" node1="9" node2="10"/>
                <iidm:switch id="L9-11-11_DISCONNECTOR_10_0" kind="DISCONNECTOR" retained="false" open="true" node1="10" node2="0"/>
                <iidm:switch id="L9-11-11_DISCONNECTOR_10_1" kind="DISCONNECTOR" retained="false" open="false" node1="10" node2="1"/>
                <iidm:switch id="L9-12-11_BREAKER" kind="BREAKER" retained="true" open="false" node1="11" node2="12"/>
                <iidm:switch id="L9-12-11_DISCONNECTOR_12_0" kind="DISCONNECTOR" retained="false" open="false" node1="12" node2="0"/>
                <iidm:switch id="L9-12-11_DISCONNECTOR_12_1" kind="DISCONNECTOR" retained="false" open="true" node1="12" node2="1"/>
                <iidm:switch id="L9-13-11_BREAKER" kind="BREAKER" retained="true" open="false" node1="13" node2="14"/>
                <iidm:switch id="L9-13-11_DISCONNECTOR_14_0" kind="DISCONNECTOR" retained="false" open="true" node1="14" node2="0"/>
                <iidm:switch id="L9-13-11_DISCONNECTOR_14_1" kind="DISCONNECTOR" retained="false" open="false" node1="14" node2="1"/>
                <iidm:switch id="L54-55-12_BREAKER" kind="BREAKER" retained="true" open="false" node1="15" node2="16"/>
                <iidm:switch id="L54-55-12_DISCONNECTOR_16_2" kind="DISCONNECTOR" retained="false" open="false" node1="16" node2="2"/>
                <iidm:switch id="T9-55-11_BREAKER" kind="BREAKER" retained="true" open="false" node1="17" node2="19"/>
                <iidm:switch id="T9-55-11_DISCONNECTOR_19_0" kind="DISCONNECTOR" retained="false" open="true" node1="19" node2="0"/>
                <iidm:switch id="T9-55-11_DISCONNECTOR_19_1" kind="DISCONNECTOR" retained="false" open="false" node1="19" node2="1"/>
                <iidm:switch id="T9-55-12_BREAKER" kind="BREAKER" retained="true" open="false" node1="18" node2="20"/>
                <iidm:switch id="T9-55-12_DISCONNECTOR_20_2" kind="DISCONNECTOR" retained="false" open="false" node1="20" node2="2"/>
                <iidm:switch id="B9-L_BREAKER" kind="BREAKER" retained="true" open="false" node1="21" node2="22"/>
                <iidm:switch id="B9-L_DISCONNECTOR_22_0" kind="DISCONNECTOR" retained="false" open="false" node1="22" node2="0"/>
                <iidm:switch id="B9-L_DISCONNECTOR_22_1" kind="DISCONNECTOR" retained="false" open="true" node1="22" node2="1"/>
                <iidm:switch id="B55-L_BREAKER" kind="BREAKER" retained="true" open="false" node1="23" node2="24"/>
                <iidm:switch id="B55-L_DISCONNECTOR_24_2" kind="DISCONNECTOR" retained="false" open="false" node1="24" node2="2"/>
                <iidm:switch id="B9-G_BREAKER" kind="BREAKER" retained="true" open="false" node1="25" node2="26"/>
                <iidm:switch id="B9-G_DISCONNECTOR_26_0" kind="DISCONNECTOR" retained="false" open="true" node1="26" node2="0"/>
                <iidm:switch id="B9-G_DISCONNECTOR_26_1" kind="DISCONNECTOR" retained="false" open="false" node1="26" node2="1"/>
                <iidm:bus v="0.98" angle="-1.3963393197774006" nodes="0,1,3,4,5,6,7,8,9,10,11,12,13,14,17,19,21,22,25,26"/>
                <iidm:bus v="1.0303439884566181" angle="-2.557196989782531" nodes="2,15,16,18,20,23,24"/>
            </iidm:nodeBreakerTopology>
            <iidm:generator id="B9-G" name="" energySource="OTHER" minP="-9999.0" maxP="9999.0" voltageRegulatorOn="true" targetP="0.0" targetV="0.98" targetQ="2.2" node="25" p="-0.0" q="-2.920963172490873">
                <iidm:minMaxReactiveLimits minQ="-3.0" maxQ="9.0"/>
            </iidm:generator>
            <iidm:load id="B9-L" name="" loadType="UNDEFINED" p0="121.0" q0="26.0" node="21" p="121.0" q="26.0"/>
            <iidm:load id="B55-L" name="" loadType="UNDEFINED" p0="6.8" q0="3.4" node="23" p="6.8" q="3.4"/>
        </iidm:voltageLevel>
        <iidm:twoWindingsTransformer id="T9-55-1" r="0.0" x="0.001205" g="0.0" b="0.0" ratedU1="0.94" ratedU2="1.0" voltageLevelId1="VL9" node1="17" voltageLevelId2="VL9" node2="18" p1="18.060095652453313" q1="10.74623483449505" p2="-18.060095652453313" q2="-10.256605444311651"/>
    </iidm:substation>
    <iidm:substation id="S10" name="" country="BE" tso="">
        <iidm:voltageLevel id="VL10" name="" nominalV="1.0" topologyKind="NODE_BREAKER">
            <iidm:nodeBreakerTopology>
                <iidm:busbarSection id="VL10_0_BBS1" name="VL10_0_BBS1" node="0"/>
                <iidm:busbarSection id="VL10_1_BBS1" name="VL10_1_BBS1" node="1"/>
                <iidm:switch id="L9-10-12_BREAKER" kind="BREAKER" retained="true" open="false" node1="2" node2="3"/>
                <iidm:switch id="L9-10-12_DISCONNECTOR_3_0" kind="DISCONNECTOR" retained="false" open="false" node1="3" node2="0"/>
                <iidm:switch id="L10-12-11_BREAKER" kind="BREAKER" retained="true" open="false" node1="4" node2="5"/>
                <iidm:switch id="L10-12-11_DISCONNECTOR_5_0" kind="DISCONNECTOR" retained="false" open="false" node1="5" node2="0"/>
                <iidm:switch id="L50-51-12_BREAKER" kind="BREAKER" retained="true" open="false" node1="6" node2="7"/>
                <iidm:switch id="L50-51-12_DISCONNECTOR_7_1" kind="DISCONNECTOR" retained="false" open="false" node1="7" node2="1"/>
                <iidm:switch id="T10-51-11_BREAKER" kind="BREAKER" retained="true" open="false" node1="8" node2="10"/>
                <iidm:switch id="T10-51-11_DISCONNECTOR_10_0" kind="DISCONNECTOR" retained="false" open="false" node1="10" node2="0"/>
                <iidm:switch id="T10-51-12_BREAKER" kind="BREAKER" retained="true" open="false" node1="9" node2="11"/>
                <iidm:switch id="T10-51-12_DISCONNECTOR_11_1" kind="DISCONNECTOR" retained="false" open="false" node1="11" node2="1"/>
                <iidm:switch id="B10-L_BREAKER" kind="BREAKER" retained="true" open="false" node1="12" node2="13"/>
                <iidm:switch id="B10-L_DISCONNECTOR_13_0" kind="DISCONNECTOR" retained="false" open="false" node1="13" node2="0"/>
                <iidm:switch id="B51-L_BREAKER" kind="BREAKER" retained="true" open="false" node1="14" node2="15"/>
                <iidm:switch id="B51-L_DISCONNECTOR_15_1" kind="DISCONNECTOR" retained="false" open="false" node1="15" node2="1"/>
                <iidm:bus v="0.9868880778709012" angle="-4.13191322451188" nodes="0,2,3,4,5,8,10,12,13"/>
                <iidm:bus v="1.0542912229446733" angle="-5.339023737370002" nodes="1,6,7,9,11,14,15"/>
            </iidm:nodeBreakerTopology>
            <iidm:load id="B10-L" name="" loadType="UNDEFINED" p0="5.0" q0="2.0" node="12" p="5.0" q="2.0"/>
            <iidm:load id="B51-L" name="" loadType="UNDEFINED" p0="18.0" q0="5.3" node="14" p="18.0" q="5.3"/>
        </iidm:voltageLevel>
        <iidm:twoWindingsTransformer id="T10-51-1" r="0.0" x="7.12E-4" g="0.0" b="0.0" ratedU1="0.93" ratedU2="1.0" voltageLevelId1="VL10" node1="8" voltageLevelId2="VL10" node2="9" p1="33.10227351512985" q1="10.600856990801748" p2="-33.10227351512985" q2="-9.836973938016307"/>
    </iidm:substation>
    <iidm:substation id="S11" name="" country="BE" tso="">
        <iidm:voltageLevel id="VL11" name="" nominalV="1.0" topologyKind="NODE_BREAKER">
            <iidm:nodeBreakerTopology>
                <iidm:busbarSection id="VL11_0_BBS1" name="VL11_0_BBS1" node="0"/>
                <iidm:busbarSection id="VL11_0_BBS2" name="VL11_0_BBS2" node="1"/>
                <iidm:busbarSection id="VL11_1_BBS1" name="VL11_1_BBS1" node="2"/>
                <iidm:busbarSection id="VL11_1_BBS2" name="VL11_1_BBS2" node="3"/>
                <iidm:busbarSection id="VL11_2_BBS1" name="VL11_2_BBS1" node="4"/>
                <iidm:switch id="VL11_0_BBS1_VL11_0_BBS2_COUPLER_BREAKER" kind="BREAKER" retained="true" open="false" node1="5" node2="6"/>
                <iidm:switch id="VL11_0_BBS1_VL11_0_BBS2_COUPLER_DISCONNECTOR_5_0" kind="DISCONNECTOR" retained="false" open="false" node1="5" node2="0"/>
                <iidm:switch id="VL11_0_BBS1_VL11_0_BBS2_COUPLER_DISCONNECTOR_6_1" kind="DISCONNECTOR" retained="false" open="false" node1="6" node2="1"/>
                <iidm:switch id="VL11_1_BBS1_VL11_1_BBS2_COUPLER_BREAKER" kind="BREAKER" retained="true" open="false" node1="7" node2="8"/>
                <iidm:switch id="VL11_1_BBS1_VL11_1_BBS2_COUPLER_DISCONNECTOR_7_2" kind="DISCONNECTOR" retained="false" open="false" node1="7" node2="2"/>
                <iidm:switch id="VL11_1_BBS1_VL11_1_BBS2_COUPLER_DISCONNECTOR_8_3" kind="DISCONNECTOR" retained="false" open="false" node1="8" node2="3"/>
                <iidm:switch id="L9-11-12_BREAKER" kind="BREAKER" retained="true" open="false" node1="9" node2="10"/>
                <iidm:switch id="L9-11-12_DISCONNECTOR_10_0" kind="DISCONNECTOR" retained="false" open="true" node1="10" node2="0"/>
                <iidm:switch id="L9-11-12_DISCONNECTOR_10_1" kind="DISCONNECTOR" retained="false" open="false" node1="10" node2="1"/>
                <iidm:switch id="L11-13-11_BREAKER" kind="BREAKER" retained="true" open="false" node1="11" node2="12"/>
                <iidm:switch id="L11-13-11_DISCONNECTOR_12_0" kind="DISCONNECTOR" retained="false" open="false" node1="12" node2="0"/>
                <iidm:switch id="L11-13-11_DISCONNECTOR_12_1" kind="DISCONNECTOR" retained="false" open="true" node1="12" node2="1"/>
                <iidm:switch id="L41-42-11_BREAKER" kind="BREAKER" retained="true" open="false" node1="13" node2="14"/>
                <iidm:switch id="L41-42-11_DISCONNECTOR_14_2" kind="DISCONNECTOR" retained="false" open="false" node1="14" node2="2"/>
                <iidm:switch id="L41-42-11_DISCONNECTOR_14_3" kind="DISCONNECTOR" retained="false" open="true" node1="14" node2="3"/>
                <iidm:switch id="L41-43-11_BREAKER" kind="BREAKER" retained="true" open="false" node1="15" node2="17"/>
                <iidm:switch id="L41-43-11_DISCONNECTOR_17_2" kind="DISCONNECTOR" retained="false" open="true" node1="17" node2="2"/>
                <iidm:switch id="L41-43-11_DISCONNECTOR_17_3" kind="DISCONNECTOR" retained="false" open="false" node1="17" node2="3"/>
                <iidm:switch id="L41-43-12_BREAKER" kind="BREAKER" retained="true" open="false" node1="16" node2="18"/>
                <iidm:switch id="L41-43-12_DISCONNECTOR_18_4" kind="DISCONNECTOR" retained="false" open="false" node1="18" node2="4"/>
                <iidm:switch id="L56-41-12_BREAKER" kind="BREAKER" retained="true" open="false" node1="19" node2="20"/>
                <iidm:switch id="L56-41-12_DISCONNECTOR_20_2" kind="DISCONNECTOR" retained="false" open="false" node1="20" node2="2"/>
                <iidm:switch id="L56-41-12_DISCONNECTOR_20_3" kind="DISCONNECTOR" retained="false" open="true" node1="20" node2="3"/>
                <iidm:switch id="T11-41-11_BREAKER" kind="BREAKER" retained="true" open="false" node1="21" node2="23"/>
                <iidm:switch id="T11-41-11_DISCONNECTOR_23_0" kind="DISCONNECTOR" retained="false" open="false" node1="23" node2="0"/>
                <iidm:switch id="T11-41-11_DISCONNECTOR_23_1" kind="DISCONNECTOR" retained="false" open="true" node1="23" node2="1"/>
                <iidm:switch id="T11-41-12_BREAKER" kind="BREAKER" retained="true" open="false" node1="22" node2="24"/>
                <iidm:switch id="T11-41-12_DISCONNECTOR_24_2" kind="DISCONNECTOR" retained="false" open="true" node1="24" node2="2"/>
                <iidm:switch id="T11-41-12_DISCONNECTOR_24_3" kind="DISCONNECTOR" retained="false" open="false" node1="24" node2="3"/>
                <iidm:switch id="T11-43-11_BREAKER" kind="BREAKER" retained="true" open="false" node1="25" node2="27"/>
                <iidm:switch id="T11-43-11_DISCONNECTOR_27_0" kind="DISCONNECTOR" retained="false" open="true" node1="27" node2="0"/>
                <iidm:switch id="T11-43-11_DISCONNECTOR_27_1" kind="DISCONNECTOR" retained="false" open="false" node1="27" node2="1"/>
                <iidm:switch id="T11-43-12_BREAKER" kind="BREAKER" retained="true" open="false" node1="26" node2="28"/>
                <iidm:switch id="T11-43-12_DISCONNECTOR_28_4" kind="DISCONNECTOR" retained="false" open="false" node1="28" node2="4"/>
                <iidm:switch id="B41-L_BREAKER" kind="BREAKER" retained="true" open="false" node1="29" node2="30"/>
                <iidm:switch id="B41-L_DISCONNECTOR_30_2" kind="DISCONNECTOR" retained="false" open="false" node1="30" node2="2"/>
                <iidm:switch id="B41-L_DISCONNECTOR_30_3" kind="DISCONNECTOR" retained="false" open="true" node1="30" node2="3"/>
                <iidm:switch id="B43-L_BREAKER" kind="BREAKER" retained="true" open="false" node1="31" node2="32"/>
                <iidm:switch id="B43-L_DISCONNECTOR_32_4" kind="DISCONNECTOR" retained="false" open="false" node1="32" node2="4"/>
                <iidm:bus v="0.9745999799533424" angle="-3.0019607458475273" nodes="0,1,5,6,9,10,11,12,21,23,25,27"/>
                <iidm:bus v="0.9977951448179769" angle="-7.091905279529924" nodes="2,3,7,8,13,14,15,17,19,20,22,24,29,30"/>
                <iidm:bus v="1.0104272852722642" angle="-4.21868470700419" nodes="4,16,18,26,28,31,32"/>
            </iidm:nodeBreakerTopology>
            <iidm:load id="B41-L" name="" loadType="UNDEFINED" p0="6.3" q0="3.0" node="29" p="6.3" q="3.0"/>
            <iidm:load id="B43-L" name="" loadType="UNDEFINED" p0="2.0" q0="1.0" node="31" p="2.0" q="1.0"/>
        </iidm:voltageLevel>
        <iidm:twoWindingsTransformer id="T11-41-1" r="0.0" x="0.00749" g="0.0" b="0.0" ratedU1="0.955" ratedU2="1.0" voltageLevelId1="VL11" node1="21" voltageLevelId2="VL11" node2="22" p1="9.69635464548583" q1="3.4430016982679237" p2="-9.696354645485831" q2="-2.681583492123399"/>
        <iidm:twoWindingsTransformer id="T11-43-1" r="0.0" x="0.0015300000000000001" g="0.0" b="0.0" ratedU1="0.958" ratedU2="1.0" voltageLevelId1="VL11" node1="25" voltageLevelId2="VL11" node2="26" p1="14.26629859865314" q1="4.739738610582262" p2="-14.266298598653144" q2="-4.405648605713259"/>
    </iidm:substation>
    <iidm:substation id="S12" name="" country="BE" tso="">
        <iidm:voltageLevel id="VL12" name="" nominalV="1.0" topologyKind="NODE_BREAKER">
            <iidm:nodeBreakerTopology>
                <iidm:busbarSection id="VL12_0_BBS1" name="VL12_0_BBS1" node="0"/>
                <iidm:busbarSection id="VL12_0_BBS2" name="VL12_0_BBS2" node="1"/>
                <iidm:switch id="VL12_0_BBS1_VL12_0_BBS2_COUPLER_BREAKER" kind="BREAKER" retained="true" open="false" node1="2" node2="3"/>
                <iidm:switch id="VL12_0_BBS1_VL12_0_BBS2_COUPLER_DISCONNECTOR_2_0" kind="DISCONNECTOR" retained="false" open="false" node1="2" node2="0"/>
                <iidm:switch id="VL12_0_BBS1_VL12_0_BBS2_COUPLER_DISCONNECTOR_3_1" kind="DISCONNECTOR" retained="false" open="false" node1="3" node2="1"/>
                <iidm:switch id="L9-12-12_BREAKER" kind="BREAKER" retained="true" open="false" node1="4" node2="5"/>
                <iidm:switch id="L9-12-12_DISCONNECTOR_5_0" kind="DISCONNECTOR" retained="false" open="true" node1="5" node2="0"/>
                <iidm:switch id="L9-12-12_DISCONNECTOR_5_1" kind="DISCONNECTOR" retained="false" open="false" node1="5" node2="1"/>
                <iidm:switch id="L10-12-12_BREAKER" kind="BREAKER" retained="true" open="false" node1="6" node2="7"/>
                <iidm:switch id="L10-12-12_DISCONNECTOR_7_0" kind="DISCONNECTOR" retained="false" open="false" node1="7" node2="0"/>
                <iidm:switch id="L10-12-12_DISCONNECTOR_7_1" kind="DISCONNECTOR" retained="false" open="true" node1="7" node2="1"/>
                <iidm:switch id="L12-13-11_BREAKER" kind="BREAKER" retained="true" open="false" node1="8" node2="9"/>
                <iidm:switch id="L12-13-11_DISCONNECTOR_9_0" kind="DISCONNECTOR" retained="false" open="false" node1="9" node2="0"/>
                <iidm:switch id="L12-13-11_DISCONNECTOR_9_1" kind="DISCONNECTOR" retained="false" open="true" node1="9" node2="1"/>
                <iidm:switch id="L12-16-11_BREAKER" kind="BREAKER" retained="true" open="false" node1="10" node2="11"/>
                <iidm:switch id="L12-16-11_DISCONNECTOR_11_0" kind="DISCONNECTOR" retained="false" open="true" node1="11" node2="0"/>
                <iidm:switch id="L12-16-11_DISCONNECTOR_11_1" kind="DISCONNECTOR" retained="false" open="false" node1="11" node2="1"/>
                <iidm:switch id="L12-17-11_BREAKER" kind="BREAKER" retained="true" open="false" node1="12" node2="13"/>
                <iidm:switch id="L12-17-11_DISCONNECTOR_13_0" kind="DISCONNECTOR" retained="false" open="false" node1="13" node2="0"/>
                <iidm:switch id="L12-17-11_DISCONNECTOR_13_1" kind="DISCONNECTOR" retained="false" open="true" node1="13" node2="1"/>
                <iidm:switch id="B12-L_BREAKER" kind="BREAKER" retained="true" open="false" node1="14" node2="15"/>
                <iidm:switch id="B12-L_DISCONNECTOR_15_0" kind="DISCONNECTOR" retained="false" open="true" node1="15" node2="0"/>
                <iidm:switch id="B12-L_DISCONNECTOR_15_1" kind="DISCONNECTOR" retained="false" open="false" node1="15" node2="1"/>
                <iidm:switch id="B12-G_BREAKER" kind="BREAKER" retained="true" open="false" node1="16" node2="17"/>
                <iidm:switch id="B12-G_DISCONNECTOR_17_0" kind="DISCONNECTOR" retained="false" open="false" node1="17" node2="0"/>
                <iidm:switch id="B12-G_DISCONNECTOR_17_1" kind="DISCONNECTOR" retained="false" open="true" node1="17" node2="1"/>
                <iidm:bus v="1.015" angle="-3.506171426208432" nodes="0,1,2,3,4,5,6,7,8,9,10,11,12,13,14,15,16,17"/>
            </iidm:nodeBreakerTopology>
            <iidm:generator id="B12-G" name="" energySource="OTHER" minP="-9999.0" maxP="9999.0" voltageRegulatorOn="true" targetP="310.0" targetV="1.015" targetQ="128.5" node="16" p="-395.5214022795273" q="-96.48955118026986">
                <iidm:minMaxReactiveLimits minQ="-150.0" maxQ="155.0"/>
            </iidm:generator>
            <iidm:load id="B12-L" name="" loadType="UNDEFINED" p0="377.0" q0="24.0" node="14" p="377.0" q="24.0"/>
        </iidm:voltageLevel>
    </iidm:substation>
    <iidm:substation id="S13" name="" country="BE" tso="">
        <iidm:voltageLevel id="VL13" name="" nominalV="1.0" topologyKind="NODE_BREAKER">
            <iidm:nodeBreakerTopology>
                <iidm:busbarSection id="VL13_0_BBS1" name="VL13_0_BBS1" node="0"/>
                <iidm:busbarSection id="VL13_0_BBS2" name="VL13_0_BBS2" node="1"/>
                <iidm:busbarSection id="VL13_1_BBS1" name="VL13_1_BBS1" node="2"/>
                <iidm:busbarSection id="VL13_1_BBS2" name="VL13_1_BBS2" node="3"/>
                <iidm:switch id="VL13_0_BBS1_VL13_0_BBS2_COUPLER_BREAKER" kind="BREAKER" retained="true" open="false" node1="4" node2="5"/>
                <iidm:switch id="VL13_0_BBS1_VL13_0_BBS2_COUPLER_DISCONNECTOR_4_0" kind="DISCONNECTOR" retained="false" open="false" node1="4" node2="0"/>
                <iidm:switch id="VL13_0_BBS1_VL13_0_BBS2_COUPLER_DISCONNECTOR_5_1" kind="DISCONNECTOR" retained="false" open="false" node1="5" node2="1"/>
                <iidm:switch id="VL13_1_BBS1_VL13_1_BBS2_COUPLER_BREAKER" kind="BREAKER" retained="true" open="false" node1="6" node2="7"/>
                <iidm:switch id="VL13_1_BBS1_VL13_1_BBS2_COUPLER_DISCONNECTOR_6_2" kind="DISCONNECTOR" retained="false" open="false" node1="6" node2="2"/>
                <iidm:switch id="VL13_1_BBS1_VL13_1_BBS2_COUPLER_DISCONNECTOR_7_3" kind="DISCONNECTOR" retained="false" open="false" node1="7" node2="3"/>
                <iidm:switch id="L9-13-12_BREAKER" kind="BREAKER" retained="true" open="false" node1="8" node2="9"/>
                <iidm:switch id="L9-13-12_DISCONNECTOR_9_0" kind="DISCONNECTOR" retained="false" open="false" node1="9" node2="0"/>
                <iidm:switch id="L9-13-12_DISCONNECTOR_9_1" kind="DISCONNECTOR" retained="false" open="true" node1="9" node2="1"/>
                <iidm:switch id="L13-14-11_BREAKER" kind="BREAKER" retained="true" open="false" node1="10" node2="11"/>
                <iidm:switch id="L13-14-11_DISCONNECTOR_11_0" kind="DISCONNECTOR" retained="false" open="false" node1="11" node2="0"/>
                <iidm:switch id="L13-14-11_DISCONNECTOR_11_1" kind="DISCONNECTOR" retained="false" open="true" node1="11" node2="1"/>
                <iidm:switch id="L13-15-11_BREAKER" kind="BREAKER" retained="true" open="false" node1="12" node2="13"/>
                <iidm:switch id="L13-15-11_DISCONNECTOR_13_0" kind="DISCONNECTOR" retained="false" open="true" node1="13" node2="0"/>
                <iidm:switch id="L13-15-11_DISCONNECTOR_13_1" kind="DISCONNECTOR" retained="false" open="false" node1="13" node2="1"/>
                <iidm:switch id="L11-13-12_BREAKER" kind="BREAKER" retained="true" open="false" node1="14" node2="15"/>
                <iidm:switch id="L11-13-12_DISCONNECTOR_15_0" kind="DISCONNECTOR" retained="false" open="true" node1="15" node2="0"/>
                <iidm:switch id="L11-13-12_DISCONNECTOR_15_1" kind="DISCONNECTOR" retained="false" open="false" node1="15" node2="1"/>
                <iidm:switch id="L12-13-12_BREAKER" kind="BREAKER" retained="true" open="false" node1="16" node2="17"/>
                <iidm:switch id="L12-13-12_DISCONNECTOR_17_0" kind="DISCONNECTOR" retained="false" open="false" node1="17" node2="0"/>
                <iidm:switch id="L12-13-12_DISCONNECTOR_17_1" kind="DISCONNECTOR" retained="false" open="true" node1="17" node2="1"/>
                <iidm:switch id="L48-49-12_BREAKER" kind="BREAKER" retained="true" open="false" node1="18" node2="19"/>
                <iidm:switch id="L48-49-12_DISCONNECTOR_19_2" kind="DISCONNECTOR" retained="false" open="true" node1="19" node2="2"/>
                <iidm:switch id="L48-49-12_DISCONNECTOR_19_3" kind="DISCONNECTOR" retained="false" open="false" node1="19" node2="3"/>
                <iidm:switch id="L49-50-11_BREAKER" kind="BREAKER" retained="true" open="false" node1="20" node2="21"/>
                <iidm:switch id="L49-50-11_DISCONNECTOR_21_2" kind="DISCONNECTOR" retained="false" open="false" node1="21" node2="2"/>
                <iidm:switch id="L49-50-11_DISCONNECTOR_21_3" kind="DISCONNECTOR" retained="false" open="true" node1="21" node2="3"/>
                <iidm:switch id="L38-49-12_BREAKER" kind="BREAKER" retained="true" open="false" node1="22" node2="23"/>
                <iidm:switch id="L38-49-12_DISCONNECTOR_23_2" kind="DISCONNECTOR" retained="false" open="false" node1="23" node2="2"/>
                <iidm:switch id="L38-49-12_DISCONNECTOR_23_3" kind="DISCONNECTOR" retained="false" open="true" node1="23" node2="3"/>
                <iidm:switch id="T13-49-11_BREAKER" kind="BREAKER" retained="true" open="false" node1="24" node2="26"/>
                <iidm:switch id="T13-49-11_DISCONNECTOR_26_0" kind="DISCONNECTOR" retained="false" open="true" node1="26" node2="0"/>
                <iidm:switch id="T13-49-11_DISCONNECTOR_26_1" kind="DISCONNECTOR" retained="false" open="false" node1="26" node2="1"/>
                <iidm:switch id="T13-49-12_BREAKER" kind="BREAKER" retained="true" open="false" node1="25" node2="27"/>
                <iidm:switch id="T13-49-12_DISCONNECTOR_27_2" kind="DISCONNECTOR" retained="false" open="true" node1="27" node2="2"/>
                <iidm:switch id="T13-49-12_DISCONNECTOR_27_3" kind="DISCONNECTOR" retained="false" open="false" node1="27" node2="3"/>
                <iidm:switch id="B13-L_BREAKER" kind="BREAKER" retained="true" open="false" node1="28" node2="29"/>
                <iidm:switch id="B13-L_DISCONNECTOR_29_0" kind="DISCONNECTOR" retained="false" open="false" node1="29" node2="0"/>
                <iidm:switch id="B13-L_DISCONNECTOR_29_1" kind="DISCONNECTOR" retained="false" open="true" node1="29" node2="1"/>
                <iidm:switch id="B49-L_BREAKER" kind="BREAKER" retained="true" open="false" node1="30" node2="31"/>
                <iidm:switch id="B49-L_DISCONNECTOR_31_2" kind="DISCONNECTOR" retained="false" open="false" node1="31" node2="2"/>
                <iidm:switch id="B49-L_DISCONNECTOR_31_3" kind="DISCONNECTOR" retained="false" open="true" node1="31" node2="3"/>
                <iidm:bus v="0.9804682070589514" angle="-3.4190569980794847" nodes="0,1,4,5,8,9,10,11,12,13,14,15,16,17,24,26,28,29"/>
                <iidm:bus v="1.038200582177201" angle="-6.617563519239903" nodes="2,3,6,7,18,19,20,21,22,23,25,27,30,31"/>
            </iidm:nodeBreakerTopology>
            <iidm:load id="B13-L" name="" loadType="UNDEFINED" p0="18.0" q0="2.3" node="28" p="18.0" q="2.3"/>
            <iidm:load id="B49-L" name="" loadType="UNDEFINED" p0="18.0" q0="8.5" node="30" p="18.0" q="8.5"/>
        </iidm:voltageLevel>
        <iidm:twoWindingsTransformer id="T13-49-1" r="0.0" x="0.00191" g="0.0" b="0.0" ratedU1="0.895" ratedU2="1.0" voltageLevelId1="VL13" node1="24" voltageLevelId2="VL13" node2="25" p1="33.22441901850981" q1="33.78937977437128" p2="-33.22441901850982" q2="-30.215485083418397"/>
    </iidm:substation>
    <iidm:substation id="S14" name="" country="BE" tso="">
        <iidm:voltageLevel id="VL14" name="" nominalV="1.0" topologyKind="NODE_BREAKER">
            <iidm:nodeBreakerTopology>
                <iidm:busbarSection id="VL14_0_BBS1" name="VL14_0_BBS1" node="0"/>
                <iidm:busbarSection id="VL14_1_BBS1" name="VL14_1_BBS1" node="1"/>
                <iidm:switch id="L13-14-12_BREAKER" kind="BREAKER" retained="true" open="false" node1="2" node2="3"/>
                <iidm:switch id="L13-14-12_DISCONNECTOR_3_0" kind="DISCONNECTOR" retained="false" open="false" node1="3" node2="0"/>
                <iidm:switch id="L14-15-11_BREAKER" kind="BREAKER" retained="true" open="false" node1="4" node2="5"/>
                <iidm:switch id="L14-15-11_DISCONNECTOR_5_0" kind="DISCONNECTOR" retained="false" open="false" node1="5" node2="0"/>
                <iidm:switch id="L46-47-11_BREAKER" kind="BREAKER" retained="true" open="false" node1="6" node2="7"/>
                <iidm:switch id="L46-47-11_DISCONNECTOR_7_1" kind="DISCONNECTOR" retained="false" open="false" node1="7" node2="1"/>
                <iidm:switch id="T14-46-11_BREAKER" kind="BREAKER" retained="true" open="false" node1="8" node2="10"/>
                <iidm:switch id="T14-46-11_DISCONNECTOR_10_0" kind="DISCONNECTOR" retained="false" open="false" node1="10" node2="0"/>
                <iidm:switch id="T14-46-12_BREAKER" kind="BREAKER" retained="true" open="false" node1="9" node2="11"/>
                <iidm:switch id="T14-46-12_DISCONNECTOR_11_1" kind="DISCONNECTOR" retained="false" open="false" node1="11" node2="1"/>
                <iidm:switch id="B14-L_BREAKER" kind="BREAKER" retained="true" open="false" node1="12" node2="13"/>
                <iidm:switch id="B14-L_DISCONNECTOR_13_0" kind="DISCONNECTOR" retained="false" open="false" node1="13" node2="0"/>
                <iidm:bus v="0.9727275261993237" angle="-3.595931070666375" nodes="0,2,3,4,5,8,10,12,13"/>
                <iidm:bus v="1.0615882638455998" angle="-5.233980958145572" nodes="1,6,7,9,11"/>
            </iidm:nodeBreakerTopology>
            <iidm:load id="B14-L" name="" loadType="UNDEFINED" p0="10.5" q0="5.3" node="12" p="10.5" q="5.3"/>
        </iidm:voltageLevel>
        <iidm:twoWindingsTransformer id="T14-46-1" r="0.0" x="7.35E-4" g="0.0" b="0.0" ratedU1="0.9" ratedU2="1.0" voltageLevelId1="VL14" node1="8" voltageLevelId2="VL14" node2="9" p1="44.62341403958469" q1="28.900837004424236" p2="-44.62341403958469" q2="-27.12239346292594"/>
    </iidm:substation>
    <iidm:substation id="S15" name="" country="BE" tso="">
        <iidm:voltageLevel id="VL15" name="" nominalV="1.0" topologyKind="NODE_BREAKER">
            <iidm:nodeBreakerTopology>
                <iidm:busbarSection id="VL15_0_BBS1" name="VL15_0_BBS1" node="0"/>
                <iidm:busbarSection id="VL15_0_BBS2" name="VL15_0_BBS2" node="1"/>
                <iidm:busbarSection id="VL15_1_BBS1" name="VL15_1_BBS1" node="2"/>
                <iidm:switch id="VL15_0_BBS1_VL15_0_BBS2_COUPLER_BREAKER" kind="BREAKER" retained="true" open="false" node1="3" node2="4"/>
                <iidm:switch id="VL15_0_BBS1_VL15_0_BBS2_COUPLER_DISCONNECTOR_3_0" kind="DISCONNECTOR" retained="false" open="false" node1="3" node2="0"/>
                <iidm:switch id="VL15_0_BBS1_VL15_0_BBS2_COUPLER_DISCONNECTOR_4_1" kind="DISCONNECTOR" retained="false" open="false" node1="4" node2="1"/>
                <iidm:switch id="L13-15-12_BREAKER" kind="BREAKER" retained="true" open="false" node1="5" node2="6"/>
                <iidm:switch id="L13-15-12_DISCONNECTOR_6_0" kind="DISCONNECTOR" retained="false" open="false" node1="6" node2="0"/>
                <iidm:switch id="L13-15-12_DISCONNECTOR_6_1" kind="DISCONNECTOR" retained="false" open="true" node1="6" node2="1"/>
                <iidm:switch id="L1-15-12_BREAKER" kind="BREAKER" retained="true" open="false" node1="7" node2="8"/>
                <iidm:switch id="L1-15-12_DISCONNECTOR_8_0" kind="DISCONNECTOR" retained="false" open="true" node1="8" node2="0"/>
                <iidm:switch id="L1-15-12_DISCONNECTOR_8_1" kind="DISCONNECTOR" retained="false" open="false" node1="8" node2="1"/>
                <iidm:switch id="L3-15-12_BREAKER" kind="BREAKER" retained="true" open="false" node1="9" node2="10"/>
                <iidm:switch id="L3-15-12_DISCONNECTOR_10_0" kind="DISCONNECTOR" retained="false" open="false" node1="10" node2="0"/>
                <iidm:switch id="L3-15-12_DISCONNECTOR_10_1" kind="DISCONNECTOR" retained="false" open="true" node1="10" node2="1"/>
                <iidm:switch id="L14-15-12_BREAKER" kind="BREAKER" retained="true" open="false" node1="11" node2="12"/>
                <iidm:switch id="L14-15-12_DISCONNECTOR_12_0" kind="DISCONNECTOR" retained="false" open="true" node1="12" node2="0"/>
                <iidm:switch id="L14-15-12_DISCONNECTOR_12_1" kind="DISCONNECTOR" retained="false" open="false" node1="12" node2="1"/>
                <iidm:switch id="L44-45-12_BREAKER" kind="BREAKER" retained="true" open="false" node1="13" node2="14"/>
                <iidm:switch id="L44-45-12_DISCONNECTOR_14_2" kind="DISCONNECTOR" retained="false" open="false" node1="14" node2="2"/>
                <iidm:switch id="T15-45-11_BREAKER" kind="BREAKER" retained="true" open="false" node1="15" node2="17"/>
                <iidm:switch id="T15-45-11_DISCONNECTOR_17_0" kind="DISCONNECTOR" retained="false" open="false" node1="17" node2="0"/>
                <iidm:switch id="T15-45-11_DISCONNECTOR_17_1" kind="DISCONNECTOR" retained="false" open="true" node1="17" node2="1"/>
                <iidm:switch id="T15-45-12_BREAKER" kind="BREAKER" retained="true" open="false" node1="16" node2="18"/>
                <iidm:switch id="T15-45-12_DISCONNECTOR_18_2" kind="DISCONNECTOR" retained="false" open="false" node1="18" node2="2"/>
                <iidm:switch id="B15-L_BREAKER" kind="BREAKER" retained="true" open="false" node1="19" node2="20"/>
                <iidm:switch id="B15-L_DISCONNECTOR_20_0" kind="DISCONNECTOR" retained="false" open="true" node1="20" node2="0"/>
                <iidm:switch id="B15-L_DISCONNECTOR_20_1" kind="DISCONNECTOR" retained="false" open="false" node1="20" node2="1"/>
                <iidm:bus v="0.9913932445546041" angle="-2.356059010499306" nodes="0,1,3,4,5,6,7,8,9,10,11,12,15,17,19,20"/>
                <iidm:bus v="1.0369936915448894" angle="-4.028288453392557" nodes="2,13,14,16,18"/>
            </iidm:nodeBreakerTopology>
            <iidm:load id="B15-L" name="" loadType="UNDEFINED" p0="22.0" q0="5.0" node="19" p="22.0" q="5.0"/>
        </iidm:voltageLevel>
        <iidm:twoWindingsTransformer id="T15-45-1" r="0.0" x="0.001042" g="0.0" b="0.0" ratedU1="0.955" ratedU2="1.0" voltageLevelId1="VL15" node1="15" voltageLevelId2="VL15" node2="16" p1="30.148280974567083" q1="1.550239297995586" p2="-30.148280974567083" q2="-0.6690799600275574"/>
    </iidm:substation>
    <iidm:substation id="S16" name="" country="BE" tso="">
        <iidm:voltageLevel id="VL16" name="" nominalV="1.0" topologyKind="NODE_BREAKER">
            <iidm:nodeBreakerTopology>
                <iidm:busbarSection id="VL16_0_BBS1" name="VL16_0_BBS1" node="0"/>
                <iidm:switch id="L1-16-12_BREAKER" kind="BREAKER" retained="true" open="false" node1="1" node2="2"/>
                <iidm:switch id="L1-16-12_DISCONNECTOR_2_0" kind="DISCONNECTOR" retained="false" open="false" node1="2" node2="0"/>
                <iidm:switch id="L12-16-12_BREAKER" kind="BREAKER" retained="true" open="false" node1="3" node2="4"/>
                <iidm:switch id="L12-16-12_DISCONNECTOR_4_0" kind="DISCONNECTOR" retained="false" open="false" node1="4" node2="0"/>
                <iidm:switch id="B16-L_BREAKER" kind="BREAKER" retained="true" open="false" node1="5" node2="6"/>
                <iidm:switch id="B16-L_DISCONNECTOR_6_0" kind="DISCONNECTOR" retained="false" open="false" node1="6" node2="0"/>
                <iidm:bus v="1.0164795330694074" angle="-3.8866028689325223" nodes="0,1,2,3,4,5,6"/>
            </iidm:nodeBreakerTopology>
            <iidm:load id="B16-L" name="" loadType="UNDEFINED" p0="43.0" q0="3.0" node="5" p="43.0" q="3.0"/>
        </iidm:voltageLevel>
    </iidm:substation>
    <iidm:substation id="S17" name="" country="BE" tso="">
        <iidm:voltageLevel id="VL17" name="" nominalV="1.0" topologyKind="NODE_BREAKER">
            <iidm:nodeBreakerTopology>
                <iidm:busbarSection id="VL17_0_BBS1" name="VL17_0_BBS1" node="0"/>
                <iidm:switch id="L1-17-12_BREAKER" kind="BREAKER" retained="true" open="false" node1="1" node2="2"/>
                <iidm:switch id="L1-17-12_DISCONNECTOR_2_0" kind="DISCONNECTOR" retained="false" open="false" node1="2" node2="0"/>
                <iidm:switch id="L12-17-12_BREAKER" kind="BREAKER" retained="true" open="false" node1="3" node2="4"/>
                <iidm:switch id="L12-17-12_DISCONNECTOR_4_0" kind="DISCONNECTOR" retained="false" open="false" node1="4" node2="0"/>
                <iidm:switch id="B17-L_BREAKER" kind="BREAKER" retained="true" open="false" node1="5" node2="6"/>
                <iidm:switch id="B17-L_DISCONNECTOR_6_0" kind="DISCONNECTOR" retained="false" open="false" node1="6" node2="0"/>
                <iidm:bus v="1.0210286613353994" angle="-2.8081028756878204" nodes="0,1,2,3,4,5,6"/>
            </iidm:nodeBreakerTopology>
            <iidm:load id="B17-L" name="" loadType="UNDEFINED" p0="42.0" q0="8.0" node="5" p="42.0" q="8.0"/>
        </iidm:voltageLevel>
    </iidm:substation>
    <iidm:substation id="S19" name="" country="BE" tso="">
        <iidm:voltageLevel id="VL19" name="" nominalV="1.0" topologyKind="NODE_BREAKER">
            <iidm:nodeBreakerTopology>
...